data_OSO
_audit_creation_date              2016-03-21
_audit_creation_method            'Materials Studio'
_symmetry_space_group_name_H-M    'P1'
_symmetry_Int_Tables_number       1
_symmetry_cell_setting            triclinic
loop_
_symmetry_equiv_pos_as_xyz
  x,y,z
_cell_length_a                    40.0000
_cell_length_b                    40.2020
_cell_length_c                    30.5880
_cell_angle_alpha                 90.0000
_cell_angle_beta                  90.0000
_cell_angle_gamma                 90.0000
loop_
_atom_site_type_symbol
_atom_site_fract_x
_atom_site_fract_y
_atom_site_fract_z
_atom_site_charge
O     0.37849   0.39623   0.17738   0.00000
O     0.41757   0.31105   0.09404   0.00000
O     0.47218   0.38731   0.01071   0.00000
O     0.39411   0.45912   0.17738   0.00000
O     0.35503   0.54431   0.09404   0.00000
O     0.30042   0.46804   0.01071   0.00000
O     0.35503   0.43667   0.23929   0.00000
O     0.30042   0.51294   0.07262   0.00000
O     0.39411   0.52186   0.15596   0.00000
O     0.41757   0.41868   0.23929   0.00000
O     0.47218   0.34242   0.07262   0.00000
O     0.37849   0.33350   0.15596   0.00000
O     0.34630   0.49661   0.20833   0.00000
O     0.34630   0.48438   0.12500   0.00000
O     0.35695   0.49049   0.04167   0.00000
O     0.42630   0.35875   0.20833   0.00000
O     0.42630   0.37098   0.12500   0.00000
O     0.41565   0.36487   0.04167   0.00000
Si    0.33962   0.47286   0.00000   0.00000
Si    0.37032   0.49049   0.16667   0.00000
Si    0.33962   0.50813   0.08333   0.00000
Si    0.43298   0.38250   0.00000   0.00000
Si    0.40229   0.36487   0.16667   0.00000
Si    0.43298   0.34723   0.08333   0.00000
Si    0.38630   0.42768   0.20833   0.00000
O     0.61280   0.33350   0.17738   0.00000
O     0.57372   0.41868   0.09404   0.00000
O     0.51911   0.34242   0.01071   0.00000
O     0.57372   0.31105   0.23929   0.00000
O     0.51911   0.38731   0.07262   0.00000
O     0.61280   0.39623   0.15596   0.00000
O     0.56500   0.37098   0.20833   0.00000
O     0.56500   0.35875   0.12500   0.00000
O     0.57565   0.36487   0.04167   0.00000
Si    0.55831   0.34723   0.00000   0.00000
Si    0.58901   0.36487   0.16667   0.00000
Si    0.55831   0.38250   0.08333   0.00000
Si    0.49565   0.36487   0.04167   0.00000
O     0.37849   0.64749   0.17738   0.00000
O     0.41757   0.56230   0.09404   0.00000
O     0.47218   0.63857   0.01071   0.00000
O     0.41757   0.66994   0.23929   0.00000
O     0.47218   0.59367   0.07262   0.00000
O     0.37849   0.58475   0.15596   0.00000
O     0.42630   0.61000   0.20833   0.00000
O     0.42630   0.62224   0.12500   0.00000
O     0.41565   0.61612   0.04167   0.00000
Si    0.43298   0.63375   0.00000   0.00000
Si    0.40229   0.61612   0.16667   0.00000
Si    0.43298   0.59849   0.08333   0.00000
Si    0.38630   0.55331   0.12500   0.00000
O     0.59719   0.52186   0.17738   0.00000
O     0.63627   0.43667   0.09404   0.00000
O     0.69088   0.51294   0.01071   0.00000
O     0.61280   0.58475   0.17738   0.00000
O     0.57372   0.66994   0.09404   0.00000
O     0.51911   0.59367   0.01071   0.00000
O     0.57372   0.56230   0.23929   0.00000
O     0.51911   0.63857   0.07262   0.00000
O     0.61280   0.64749   0.15596   0.00000
O     0.63627   0.54431   0.23929   0.00000
O     0.69088   0.46804   0.07262   0.00000
O     0.59719   0.45912   0.15596   0.00000
O     0.56500   0.62224   0.20833   0.00000
O     0.56500   0.61000   0.12500   0.00000
O     0.57565   0.61612   0.04167   0.00000
O     0.64499   0.48438   0.20833   0.00000
O     0.64499   0.49661   0.12500   0.00000
O     0.63434   0.49049   0.04167   0.00000
Si    0.55831   0.59849   0.00000   0.00000
Si    0.58901   0.61612   0.16667   0.00000
Si    0.55831   0.63375   0.08333   0.00000
Si    0.65167   0.50813   0.00000   0.00000
Si    0.62098   0.49049   0.16667   0.00000
Si    0.65167   0.47286   0.08333   0.00000
Si    0.49565   0.61612   0.04167   0.00000
Si    0.60499   0.55331   0.20833   0.00000
Si    0.60499   0.42768   0.12500   0.00000
O     0.37849   0.39623   0.42738   0.00000
O     0.41757   0.31105   0.34404   0.00000
O     0.47218   0.38731   0.26071   0.00000
O     0.39411   0.45912   0.42738   0.00000
O     0.35503   0.54431   0.34404   0.00000
O     0.30042   0.46804   0.26071   0.00000
O     0.35503   0.43667   0.48929   0.00000
O     0.30042   0.51294   0.32262   0.00000
O     0.39411   0.52186   0.40596   0.00000
O     0.41757   0.41868   0.48929   0.00000
O     0.47218   0.34242   0.32262   0.00000
O     0.37849   0.33350   0.40596   0.00000
O     0.34630   0.49661   0.45833   0.00000
O     0.34630   0.48438   0.37500   0.00000
O     0.35695   0.49049   0.29167   0.00000
O     0.42630   0.35875   0.45833   0.00000
O     0.42630   0.37098   0.37500   0.00000
O     0.41565   0.36487   0.29167   0.00000
Si    0.33962   0.47286   0.25000   0.00000
Si    0.37032   0.49049   0.41667   0.00000
Si    0.33962   0.50813   0.33333   0.00000
Si    0.43298   0.38250   0.25000   0.00000
Si    0.40229   0.36487   0.41667   0.00000
Si    0.43298   0.34723   0.33333   0.00000
Si    0.38630   0.42768   0.45833   0.00000
O     0.61280   0.33350   0.42738   0.00000
O     0.57372   0.41868   0.34404   0.00000
O     0.51911   0.34242   0.26071   0.00000
O     0.57372   0.31105   0.48929   0.00000
O     0.51911   0.38731   0.32262   0.00000
O     0.61280   0.39623   0.40596   0.00000
O     0.56500   0.37098   0.45833   0.00000
O     0.56500   0.35875   0.37500   0.00000
O     0.57565   0.36487   0.29167   0.00000
Si    0.55831   0.34723   0.25000   0.00000
Si    0.58901   0.36487   0.41667   0.00000
Si    0.55831   0.38250   0.33333   0.00000
Si    0.49565   0.36487   0.29167   0.00000
O     0.37849   0.64749   0.42738   0.00000
O     0.41757   0.56230   0.34404   0.00000
O     0.47218   0.63857   0.26071   0.00000
O     0.41757   0.66994   0.48929   0.00000
O     0.47218   0.59367   0.32262   0.00000
O     0.37849   0.58475   0.40596   0.00000
O     0.42630   0.61000   0.45833   0.00000
O     0.42630   0.62224   0.37500   0.00000
O     0.41565   0.61612   0.29167   0.00000
Si    0.43298   0.63375   0.25000   0.00000
Si    0.40229   0.61612   0.41667   0.00000
Si    0.43298   0.59849   0.33333   0.00000
Si    0.38630   0.55331   0.37500   0.00000
O     0.59719   0.52186   0.42738   0.00000
O     0.63627   0.43667   0.34404   0.00000
O     0.69088   0.51294   0.26071   0.00000
O     0.61280   0.58475   0.42738   0.00000
O     0.57372   0.66994   0.34404   0.00000
O     0.51911   0.59367   0.26071   0.00000
O     0.57372   0.56230   0.48929   0.00000
O     0.51911   0.63857   0.32262   0.00000
O     0.61280   0.64749   0.40596   0.00000
O     0.63627   0.54431   0.48929   0.00000
O     0.69088   0.46804   0.32262   0.00000
O     0.59719   0.45912   0.40596   0.00000
O     0.56500   0.62224   0.45833   0.00000
O     0.56500   0.61000   0.37500   0.00000
O     0.57565   0.61612   0.29167   0.00000
O     0.64499   0.48438   0.45833   0.00000
O     0.64499   0.49661   0.37500   0.00000
O     0.63434   0.49049   0.29167   0.00000
Si    0.55831   0.59849   0.25000   0.00000
Si    0.58901   0.61612   0.41667   0.00000
Si    0.55831   0.63375   0.33333   0.00000
Si    0.65167   0.50813   0.25000   0.00000
Si    0.62098   0.49049   0.41667   0.00000
Si    0.65167   0.47286   0.33333   0.00000
Si    0.49565   0.61612   0.29167   0.00000
Si    0.60499   0.55331   0.45833   0.00000
Si    0.60499   0.42768   0.37500   0.00000
O     0.37849   0.39623   0.67738   0.00000
O     0.41757   0.31105   0.59404   0.00000
O     0.47218   0.38731   0.51071   0.00000
O     0.39411   0.45912   0.67738   0.00000
O     0.35503   0.54431   0.59404   0.00000
O     0.30042   0.46804   0.51071   0.00000
O     0.35503   0.43667   0.73929   0.00000
O     0.30042   0.51294   0.57262   0.00000
O     0.39411   0.52186   0.65596   0.00000
O     0.41757   0.41868   0.73929   0.00000
O     0.47218   0.34242   0.57262   0.00000
O     0.37849   0.33350   0.65596   0.00000
O     0.34630   0.49661   0.70833   0.00000
O     0.34630   0.48438   0.62500   0.00000
O     0.35695   0.49049   0.54167   0.00000
O     0.42630   0.35875   0.70833   0.00000
O     0.42630   0.37098   0.62500   0.00000
O     0.41565   0.36487   0.54167   0.00000
Si    0.33962   0.47286   0.50000   0.00000
Si    0.37032   0.49049   0.66667   0.00000
Si    0.33962   0.50813   0.58333   0.00000
Si    0.43298   0.38250   0.50000   0.00000
Si    0.40229   0.36487   0.66667   0.00000
Si    0.43298   0.34723   0.58333   0.00000
Si    0.38630   0.42768   0.70833   0.00000
O     0.61280   0.33350   0.67738   0.00000
O     0.57372   0.41868   0.59404   0.00000
O     0.51911   0.34242   0.51071   0.00000
O     0.57372   0.31105   0.73929   0.00000
O     0.51911   0.38731   0.57262   0.00000
O     0.61280   0.39623   0.65596   0.00000
O     0.56500   0.37098   0.70833   0.00000
O     0.56500   0.35875   0.62500   0.00000
O     0.57565   0.36487   0.54167   0.00000
Si    0.55831   0.34723   0.50000   0.00000
Si    0.58901   0.36487   0.66667   0.00000
Si    0.55831   0.38250   0.58333   0.00000
Si    0.49565   0.36487   0.54167   0.00000
O     0.37849   0.64749   0.67738   0.00000
O     0.41757   0.56230   0.59404   0.00000
O     0.47218   0.63857   0.51071   0.00000
O     0.41757   0.66994   0.73929   0.00000
O     0.47218   0.59367   0.57262   0.00000
O     0.37849   0.58475   0.65596   0.00000
O     0.42630   0.61000   0.70833   0.00000
O     0.42630   0.62224   0.62500   0.00000
O     0.41565   0.61612   0.54167   0.00000
Si    0.43298   0.63375   0.50000   0.00000
Si    0.40229   0.61612   0.66667   0.00000
Si    0.43298   0.59849   0.58333   0.00000
Si    0.38630   0.55331   0.62500   0.00000
O     0.59719   0.52186   0.67738   0.00000
O     0.63627   0.43667   0.59404   0.00000
O     0.69088   0.51294   0.51071   0.00000
O     0.61280   0.58475   0.67738   0.00000
O     0.57372   0.66994   0.59404   0.00000
O     0.51911   0.59367   0.51071   0.00000
O     0.57372   0.56230   0.73929   0.00000
O     0.51911   0.63857   0.57262   0.00000
O     0.61280   0.64749   0.65596   0.00000
O     0.63627   0.54431   0.73929   0.00000
O     0.69088   0.46804   0.57262   0.00000
O     0.59719   0.45912   0.65596   0.00000
O     0.56500   0.62224   0.70833   0.00000
O     0.56500   0.61000   0.62500   0.00000
O     0.57565   0.61612   0.54167   0.00000
O     0.64499   0.48438   0.70833   0.00000
O     0.64499   0.49661   0.62500   0.00000
O     0.63434   0.49049   0.54167   0.00000
Si    0.55831   0.59849   0.50000   0.00000
Si    0.58901   0.61612   0.66667   0.00000
Si    0.55831   0.63375   0.58333   0.00000
Si    0.65167   0.50813   0.50000   0.00000
Si    0.62098   0.49049   0.66667   0.00000
Si    0.65167   0.47286   0.58333   0.00000
Si    0.49565   0.61612   0.54167   0.00000
Si    0.60499   0.55331   0.70833   0.00000
Si    0.60499   0.42768   0.62500   0.00000
O     0.37849   0.39623   0.92738   0.00000
O     0.41757   0.31105   0.84404   0.00000
O     0.47218   0.38731   0.76071   0.00000
O     0.39411   0.45912   0.92738   0.00000
O     0.35503   0.54431   0.84404   0.00000
O     0.30042   0.46804   0.76071   0.00000
O     0.35503   0.43667   0.98929   0.00000
O     0.30042   0.51294   0.82262   0.00000
O     0.39411   0.52186   0.90596   0.00000
O     0.41757   0.41868   0.98929   0.00000
O     0.47218   0.34242   0.82262   0.00000
O     0.37849   0.33350   0.90596   0.00000
O     0.34630   0.49661   0.95833   0.00000
O     0.34630   0.48438   0.87500   0.00000
O     0.35695   0.49049   0.79167   0.00000
O     0.42630   0.35875   0.95833   0.00000
O     0.42630   0.37098   0.87500   0.00000
O     0.41565   0.36487   0.79167   0.00000
Si    0.33962   0.47286   0.75000   0.00000
Si    0.37032   0.49049   0.91667   0.00000
Si    0.33962   0.50813   0.83333   0.00000
Si    0.43298   0.38250   0.75000   0.00000
Si    0.40229   0.36487   0.91667   0.00000
Si    0.43298   0.34723   0.83333   0.00000
Si    0.38630   0.42768   0.95833   0.00000
O     0.61280   0.33350   0.92738   0.00000
O     0.57372   0.41868   0.84404   0.00000
O     0.51911   0.34242   0.76071   0.00000
O     0.57372   0.31105   0.98929   0.00000
O     0.51911   0.38731   0.82262   0.00000
O     0.61280   0.39623   0.90596   0.00000
O     0.56500   0.37098   0.95833   0.00000
O     0.56500   0.35875   0.87500   0.00000
O     0.57565   0.36487   0.79167   0.00000
Si    0.55831   0.34723   0.75000   0.00000
Si    0.58901   0.36487   0.91667   0.00000
Si    0.55831   0.38250   0.83333   0.00000
Si    0.49565   0.36487   0.79167   0.00000
O     0.37849   0.64749   0.92738   0.00000
O     0.41757   0.56230   0.84404   0.00000
O     0.47218   0.63857   0.76071   0.00000
O     0.41757   0.66994   0.98929   0.00000
O     0.47218   0.59367   0.82262   0.00000
O     0.37849   0.58475   0.90596   0.00000
O     0.42630   0.61000   0.95833   0.00000
O     0.42630   0.62224   0.87500   0.00000
O     0.41565   0.61612   0.79167   0.00000
Si    0.43298   0.63375   0.75000   0.00000
Si    0.40229   0.61612   0.91667   0.00000
Si    0.43298   0.59849   0.83333   0.00000
Si    0.38630   0.55331   0.87500   0.00000
O     0.59719   0.52186   0.92738   0.00000
O     0.63627   0.43667   0.84404   0.00000
O     0.69088   0.51294   0.76071   0.00000
O     0.61280   0.58475   0.92738   0.00000
O     0.57372   0.66994   0.84404   0.00000
O     0.51911   0.59367   0.76071   0.00000
O     0.57372   0.56230   0.98929   0.00000
O     0.51911   0.63857   0.82262   0.00000
O     0.61280   0.64749   0.90596   0.00000
O     0.63627   0.54431   0.98929   0.00000
O     0.69088   0.46804   0.82262   0.00000
O     0.59719   0.45912   0.90596   0.00000
O     0.56500   0.62224   0.95833   0.00000
O     0.56500   0.61000   0.87500   0.00000
O     0.57565   0.61612   0.79167   0.00000
O     0.64499   0.48438   0.95833   0.00000
O     0.64499   0.49661   0.87500   0.00000
O     0.63434   0.49049   0.79167   0.00000
Si    0.55831   0.59849   0.75000   0.00000
Si    0.58901   0.61612   0.91667   0.00000
Si    0.55831   0.63375   0.83333   0.00000
Si    0.65167   0.50813   0.75000   0.00000
Si    0.62098   0.49049   0.91667   0.00000
Si    0.65167   0.47286   0.83333   0.00000
Si    0.49565   0.61612   0.79167   0.00000
Si    0.60499   0.55331   0.95833   0.00000
Si    0.60499   0.42768   0.87500   0.00000
H     0.39334   0.31401   0.11129   0.00000
H     0.29301   0.48531   0.03731   0.00000
H     0.28986   0.53242   0.09432   0.00000
H     0.35308   0.33820   0.16914   0.00000
H     0.63317   0.34143   0.19971   0.00000
H     0.60076   0.31083   0.24746   0.00000
H     0.39300   0.66658   0.19547   0.00000
H     0.43474   0.68950   0.25163   0.00000
H     0.69388   0.53197   0.03671   0.00000
H     0.55375   0.68632   0.10712   0.00000
H     0.60335   0.66981   0.17338   0.00000
H     0.70585   0.48486   0.09372   0.00000
H     0.39334   0.31401   0.36129   0.00000
H     0.29301   0.48531   0.28731   0.00000
H     0.28986   0.53242   0.34432   0.00000
H     0.35308   0.33820   0.41914   0.00000
H     0.63317   0.34143   0.44971   0.00000
H     0.60076   0.31083   0.49746   0.00000
H     0.39300   0.66658   0.44547   0.00000
H     0.43474   0.68950   0.50163   0.00000
H     0.69388   0.53197   0.28671   0.00000
H     0.55375   0.68632   0.35712   0.00000
H     0.60335   0.66981   0.42338   0.00000
H     0.70585   0.48486   0.34372   0.00000
H     0.39334   0.31401   0.61129   0.00000
H     0.29301   0.48531   0.53731   0.00000
H     0.28986   0.53242   0.59432   0.00000
H     0.35308   0.33820   0.66914   0.00000
H     0.63317   0.34143   0.69971   0.00000
H     0.60076   0.31083   0.74746   0.00000
H     0.39300   0.66658   0.69547   0.00000
H     0.43474   0.68950   0.75163   0.00000
H     0.69388   0.53197   0.53671   0.00000
H     0.55375   0.68632   0.60712   0.00000
H     0.60335   0.66981   0.67338   0.00000
H     0.70585   0.48486   0.59372   0.00000
H     0.39334   0.31401   0.86129   0.00000
H     0.29301   0.48531   0.78731   0.00000
H     0.28986   0.53242   0.84432   0.00000
H     0.35308   0.33820   0.91914   0.00000
H     0.63317   0.34143   0.94971   0.00000
H     0.60076   0.31083   0.99746   0.00000
H     0.39300   0.66658   0.94547   0.00000
H     0.43474   0.68950   1.00163   0.00000
H     0.69388   0.53197   0.78671   0.00000
H     0.55375   0.68632   0.85712   0.00000
H     0.60335   0.66981   0.92338   0.00000
H     0.70585   0.48486   0.84372   0.00000
